[settings]
proj_name=Shullcas_2lay_res
gsflow_exe=/home/gcng/workspace/Models/GSFLOW/GSFLOW_1.2.0_gcng/bin
gsflow_simdir=/media/gcng/STORAGE3A/GSFLOW/Shullcas_CrystalLauren5_works_2lay_res
DEM=DEM
GISinput_dir=/media/gcng/STORAGE3A/GSFLOW/GSFLOW_input_Shullcas/CrystalLauren5
climate_data_file=/media/gcng/STORAGE3A/GSFLOW/Shullcas_Updated_gcng/Data/climate/Huaytapallana_MetData_F.txt
sw_1spinup_2restart=2
restart_PRMSfil=/media/gcng/STORAGE3A/GSFLOW/Shullcas_CrystalLauren5_works_2lay/outputs/PRMS_GSFLOW/init_cond_outfile
restart_MODfil=/media/gcng/STORAGE3A/GSFLOW/Shullcas_CrystalLauren5_works_2lay/outputs/MODFLOW_NWT/Shullcas_2lay.out

[custom_params]
hydcond =hydcond_test.txt
finf = 0.0015

[domain]
start_date=2013-08-26
end_date=2014-08-25
NLAY=2
DZ=50,100
