[settings]
proj_name=Shullcas
local_dir=/home/gcng/Shortcuts/AndesWaterResources/GSFLOW/Shullcas
gsflow_exe=/home/gcng/workspace/Models/GSFLOW/GSFLOW_1.2.0_gcng/bin
control_dir=/home/gcng/Shortcuts/AndesWaterResources/GSFLOW/Shullcas/GSFLOW/control/
PRMSinput_dir=/home/gcng/Shortcuts/AndesWaterResources/GSFLOW/Shullcas/GSFLOW/inputs/PRMS/
MODFLOWinput_dir=/home/gcng/Shortcuts/AndesWaterResources/GSFLOW/Shullcas/GSFLOW/inputs/MODFLOW_NWT/
PRMSoutput_dir=/home/gcng/Shortcuts/AndesWaterResources/GSFLOW/Shullcas/GSFLOW/outputs/PRMS/
DEM=DEM
