[settings]
proj_name=SantaRosaIsland_res
gsflow_exe=/home/gcng/workspace/Models/GSFLOW/GSFLOW_1.2.0_gcng/bin
gsflow_simdir=/media/gcng/STORAGE3A/GSFLOW/SantaRosa_res
DEM=stros_srtm_3arc_utm
GISinput_dir=/home/gcng/workspace/matlab_files/GSFLOW_pre-processor/strosa_data/GIS
climate_data_file=none
sw_1spinup_2restart=2
restart_PRMSfil=/media/gcng/STORAGE3A/GSFLOW/SantaRosa/outputs/PRMS_GSFLOW/init_cond_outfile
restart_MODfil=/media/gcng/STORAGE3A/GSFLOW/SantaRosa/outputs/MODFLOW_NWT/SantaRosaIsland.out

[domain]
start_date=2000-01-01
end_date=2000-12-31
NLAY=2
DZ=100, 50

[custom_params]
hydcond =0.1, 0.01
finf = 0.000048

