import os
import numpy as np
import time
from build_ini import BuildINI

bi = BuildINI()
bi.DEM_input = ''

outfile = os.getcwd() + '/test.ini'

drainage_thresholds = np.linspace(10E6, 1000E6, 4)
MODFLOW_grid_sizes = np.linspace(100, 10000, 4)

outlist = []
for da_thresh in drainage_thresholds:
    for modflow_gs in MODFLOW_grid_sizes:
        inner_list = []
        bi.threshold_drainage_area_meters2 = str(da_thresh)
        bi.MODFLOW_grid_resolution_meters = str(modflow_gs)
        bi.writeINI(outfile)
        
        t1 = time.time()
        os.system('python /home/awickert/models/GSFLOW-GRASS/domain_builder/buildDomainGRASS.py test.ini')
        t2 = time.time()
        dt_domain = t2-t1
        
        t1 = time.time()
        os.system('sh 

